<?xml version="1.0" encoding="UTF-8"?>

<!-- generated on 2023-06-02 14:28:20 by Eclipse SUMO GUI Version 1215d8ae5c
This data file and the accompanying materials
are made available under the terms of the Eclipse Public License v2.0
which accompanies this distribution, and is available at
http://www.eclipse.org/legal/epl-v20.html
This file may also be made available under the following Secondary
Licenses when the conditions for such availability set forth in the Eclipse
Public License 2.0 are satisfied: GNU General Public License, version 2
or later which is available at
https://www.gnu.org/licenses/old-licenses/gpl-2.0-standalone.html
SPDX-License-Identifier: EPL-2.0 OR GPL-2.0-or-later
<configuration xmlns:xsi="http://www.w3.org/2001/XMLSchema-instance" xsi:noNamespaceSchemaLocation="http://sumo.dlr.de/xsd/sumoConfiguration.xsd">

    <input>
        <net-file value="net2.net.xml"/>
        <route-files value="input_routes.rou.xml"/>
    </input>

    <output>
        <write-license value="true"/>
    </output>

    <time>
        <step-length value="0.1"/>
    </time>

    <processing>
        <step-method.ballistic value="true"/>
        <default.speeddev value="0"/>
    </processing>

    <report>
        <xml-validation value="never"/>
        <no-step-log value="true"/>
    </report>

</configuration>
-->

<SSMLog>
    <conflict begin="6.80" end="35.90" ego="ego1" foe="foe1">
        <timeSpan values="6.80 6.90 7.00 7.10 7.20 7.30 7.40 7.50 7.60 7.70 7.80 7.90 8.00 8.10 8.20 8.30 8.40 8.50 8.60 8.70 8.80 8.90 9.00 9.10 9.20 9.30 9.40 9.50 9.60 9.70 9.80 9.90 10.00 10.10 10.20 10.30 10.40 10.50 10.60 10.70 10.80 10.90 11.00 11.10 11.20 11.30 11.40 11.50 11.60 11.70 11.80 11.90 12.00 12.10 12.20 12.30 12.40 12.50 12.60 12.70 12.80 12.90 13.00 13.10 13.20 13.30 13.40 13.50 13.60 13.70 13.80 13.90 14.00 14.10 14.20 14.30 14.40 14.50 14.60 14.70 14.80 14.90 15.00 15.10 15.20 15.30 15.40 15.50 15.60 15.70 15.80 15.90 16.00 16.10 16.20 16.30 16.40 16.50 16.60 16.70 16.80 16.90 17.00 17.10 17.20 17.30 17.40 17.50 17.60 17.70 17.80 17.90 18.00 18.10 18.20 18.30 18.40 18.50 18.60 18.70 18.80 18.90 19.00 19.10 19.20 19.30 19.40 19.50 19.60 19.70 19.80 19.90 20.00 20.10 20.20 20.30 20.40 20.50 20.60 20.70 20.80 20.90 21.00 21.10 21.20 21.30 21.40 21.50 21.60 21.70 21.80 21.90 22.00 22.10 22.20 22.30 22.40 22.50 22.60 22.70 22.80 22.90 23.00 23.10 23.20 23.30 23.40 23.50 23.60 23.70 23.80 23.90 24.00 24.10 24.20 24.30 24.40 24.50 24.60 24.70 24.80 24.90 25.00 25.10 25.20 25.30 25.40 25.50 25.60 25.70 25.80 25.90 26.00 26.10 26.20 26.30 26.40 26.50 26.60 26.70 26.80 26.90 27.00 27.10 27.20 27.30 27.40 27.50 27.60 27.70 27.80 27.90 28.00 28.10 28.20 28.30 28.40 28.50 28.60 28.70 28.80 28.90 29.00 29.10 29.20 29.30 29.40 29.50 29.60 29.70 29.80 29.90 30.00 30.10 30.20 30.30 30.40 30.50 30.60 30.70 30.80 30.90 31.00 31.10 31.20 31.30 31.40 31.50 31.60 31.70 31.80 31.90 32.00 32.10 32.20 32.30 32.40 32.50 32.60 32.70 32.80 32.90 33.00 33.10 33.20 33.30 33.40 33.50 33.60 33.70 33.80 33.90 34.00 34.10 34.20 34.30 34.40 34.50 34.60 34.70 34.80 34.90 35.00 35.10 35.20 35.30 35.40 35.50 35.60 35.70 35.80 35.90"/>
        <typeSpan values="2 2 2 2 2 2 2 2 2 2 2 2 2 2 2 2 2 2 2 2 2 2 2 2 2 2 2 2 2 2 2 2 2 2 2 2 2 2 2 2 2 2 2 2 2 2 2 2 2 2 2 2 2 2 2 2 2 2 2 2 2 2 2 2 2 2 2 2 2 2 2 2 2 2 2 2 2 2 2 2 2 2 2 2 2 2 2 2 2 2 2 2 2 2 2 2 2 2 2 2 2 2 2 2 2 2 2 2 2 2 2 2 2 2 2 2 2 2 2 2 2 2 2 2 2 2 2 2 2 2 2 2 2 2 2 2 2 2 2 2 2 2 2 2 2 2 2 2 2 2 2 2 2 2 2 2 2 2 2 2 2 2 2 2 2 2 2 2 2 2 2 2 2 2 2 2 2 2 2 2 2 2 2 2 2 2 2 2 2 2 2 2 2 2 2 2 2 2 2 2 2 2 2 2 2 2 2 2 2 2 2 2 2 2 2 2 2 2 2 2 2 2 2 2 2 2 2 2 2 2 2 2 2 2 2 2 2 2 2 2 2 2 2 2 2 2 2 2 2 2 2 2 2 2 2 2 2 2 2 2 2 2 2 2 2 2 2 2 2 2 2 2 2 2 2 2 2 2 2 2 2 2 2 2 2 2 2 2 2 2 2 2"/>
        <egoPosition values="23.96,48.35 25.23,48.35 26.50,48.35 27.76,48.35 29.00,48.35 30.25,48.35 31.48,48.35 32.71,48.35 33.93,48.35 35.14,48.35 36.35,48.35 37.55,48.35 38.74,48.35 39.93,48.35 41.11,48.35 42.28,48.35 43.45,48.35 44.61,48.35 45.77,48.35 46.92,48.35 48.06,48.35 49.20,48.35 50.33,48.35 51.46,48.35 52.59,48.35 53.71,48.35 54.82,48.35 55.93,48.35 57.04,48.35 58.14,48.35 59.23,48.35 60.33,48.35 61.42,48.35 62.50,48.35 63.58,48.35 64.66,48.35 65.74,48.35 66.81,48.35 67.88,48.35 68.94,48.35 70.01,48.35 71.07,48.35 72.12,48.35 73.17,48.35 74.21,48.35 75.23,48.35 76.24,48.35 77.23,48.35 78.20,48.35 79.15,48.35 80.07,48.35 80.97,48.35 81.84,48.35 82.68,48.35 83.50,48.35 84.28,48.35 85.03,48.35 85.75,48.35 86.43,48.35 87.08,48.35 87.69,48.35 88.27,48.35 88.81,48.35 89.32,48.35 89.79,48.35 90.22,48.35 90.62,48.35 90.97,48.35 91.29,48.35 91.57,48.35 91.82,48.35 92.03,48.35 92.20,48.35 92.33,48.35 92.42,48.35 92.49,48.35 92.55,48.35 92.60,48.35 92.64,48.35 92.69,48.35 92.74,48.35 92.79,48.35 92.86,48.35 92.93,48.35 93.02,48.35 93.12,48.35 93.24,48.35 93.38,48.35 93.53,48.35 93.71,48.35 93.91,48.35 94.13,48.35 94.37,48.35 94.63,48.35 94.92,48.35 95.23,48.35 95.57,48.35 95.93,48.35 96.32,48.35 96.73,48.35 97.17,48.35 97.63,48.35 98.12,48.35 98.64,48.35 99.18,48.35 99.75,48.35 100.34,48.35 100.96,48.35 101.61,48.35 102.28,48.35 102.98,48.35 103.70,48.35 104.45,48.35 105.23,48.35 106.02,48.35 106.84,48.35 107.68,48.35 108.53,48.35 109.40,48.35 110.29,48.35 111.19,48.35 112.10,48.35 113.02,48.35 113.95,48.35 114.89,48.35 115.84,48.35 116.80,48.35 117.76,48.35 118.73,48.35 119.71,48.35 120.68,48.35 121.67,48.35 122.66,48.35 123.65,48.35 124.64,48.35 125.64,48.35 126.64,48.35 127.65,48.35 128.65,48.35 129.66,48.35 130.66,48.35 131.67,48.35 132.68,48.35 133.69,48.35 134.71,48.35 135.72,48.35 136.73,48.35 137.74,48.35 138.76,48.35 139.77,48.35 140.79,48.35 141.80,48.35 142.82,48.35 143.83,48.35 144.84,48.35 145.86,48.35 146.87,48.35 147.89,48.35 148.90,48.35 149.91,48.35 150.93,48.35 151.94,48.35 152.95,48.35 153.96,48.35 154.98,48.35 155.99,48.35 157.00,48.35 158.01,48.35 159.02,48.35 160.03,48.35 161.04,48.35 162.05,48.35 163.06,48.35 164.07,48.35 165.08,48.35 166.08,48.35 167.09,48.35 168.10,48.35 169.11,48.35 170.11,48.35 171.12,48.35 172.13,48.35 173.13,48.35 174.14,48.35 175.15,48.35 176.15,48.35 177.16,48.35 178.16,48.35 179.17,48.35 180.17,48.35 181.18,48.35 182.18,48.35 183.18,48.35 184.19,48.35 185.19,48.35 186.20,48.35 187.20,48.35 188.20,48.35 189.21,48.35 190.21,48.35 191.21,48.35 192.21,48.35 193.22,48.35 194.22,48.35 195.22,48.35 196.22,48.35 197.23,48.35 198.23,48.35 199.23,48.35 200.23,48.35 201.23,48.35 202.23,48.35 203.24,48.35 204.24,48.35 205.24,48.35 206.24,48.35 207.24,48.35 208.24,48.35 209.24,48.35 210.25,48.35 211.25,48.35 212.25,48.35 213.25,48.35 214.25,48.35 215.25,48.35 216.25,48.35 217.25,48.35 218.25,48.35 219.25,48.35 220.25,48.35 221.25,48.35 222.25,48.35 223.26,48.35 224.26,48.35 225.26,48.35 226.26,48.35 227.26,48.35 228.26,48.35 229.26,48.35 230.26,48.35 231.26,48.35 232.26,48.35 233.26,48.35 234.26,48.35 235.26,48.35 236.26,48.35 237.26,48.35 238.26,48.35 239.26,48.35 240.26,48.35 241.26,48.35 242.26,48.35 243.26,48.35 244.26,48.35 245.26,48.35 246.26,48.35 247.26,48.35 248.26,48.35 249.26,48.35 250.26,48.35 251.26,48.35 252.26,48.35 253.26,48.35 254.26,48.35 255.26,48.35 256.26,48.35 257.26,48.35 258.26,48.35 259.26,48.35 260.26,48.35 261.26,48.35 262.26,48.35 263.26,48.35 264.26,48.35 265.26,48.35 266.26,48.35 267.26,48.35 268.26,48.35 269.26,48.35 270.26,48.35 271.26,48.35 272.26,48.35 273.26,48.35 274.26,48.35 275.26,48.35 276.26,48.35 277.26,48.35 278.26,48.35 279.26,48.35 280.26,48.35 281.26,48.35 282.26,48.35"/>
        <egoVelocity values="12.75,0.00 12.68,0.00 12.60,0.00 12.53,0.00 12.46,0.00 12.38,0.00 12.31,0.00 12.24,0.00 12.17,0.00 12.10,0.00 12.03,0.00 11.96,0.00 11.90,0.00 11.83,0.00 11.77,0.00 11.71,0.00 11.65,0.00 11.59,0.00 11.53,0.00 11.47,0.00 11.42,0.00 11.36,0.00 11.31,0.00 11.26,0.00 11.21,0.00 11.17,0.00 11.12,0.00 11.08,0.00 11.03,0.00 10.99,0.00 10.95,0.00 10.91,0.00 10.87,0.00 10.84,0.00 10.80,0.00 10.77,0.00 10.73,0.00 10.70,0.00 10.67,0.00 10.64,0.00 10.62,0.00 10.59,0.00 10.53,0.00 10.44,0.00 10.32,0.00 10.17,0.00 10.00,0.00 9.81,0.00 9.59,0.00 9.36,0.00 9.11,0.00 8.85,0.00 8.57,0.00 8.28,0.00 7.97,0.00 7.66,0.00 7.34,0.00 7.00,0.00 6.66,0.00 6.32,0.00 5.97,0.00 5.61,0.00 5.24,0.00 4.88,0.00 4.51,0.00 4.13,0.00 3.76,0.00 3.38,0.00 3.01,0.00 2.63,0.00 2.26,0.00 1.88,0.00 1.51,0.00 1.13,0.00 0.80,0.00 0.59,0.00 0.50,0.00 0.46,0.00 0.45,0.00 0.47,0.00 0.52,0.00 0.59,0.00 0.69,0.00 0.81,0.00 0.95,0.00 1.11,0.00 1.28,0.00 1.46,0.00 1.66,0.00 1.86,0.00 2.08,0.00 2.30,0.00 2.53,0.00 2.76,0.00 3.00,0.00 3.24,0.00 3.49,0.00 3.74,0.00 4.00,0.00 4.25,0.00 4.51,0.00 4.77,0.00 5.03,0.00 5.29,0.00 5.55,0.00 5.81,0.00 6.07,0.00 6.33,0.00 6.59,0.00 6.85,0.00 7.11,0.00 7.37,0.00 7.63,0.00 7.86,0.00 8.08,0.00 8.28,0.00 8.46,0.00 8.63,0.00 8.78,0.00 8.92,0.00 9.05,0.00 9.16,0.00 9.27,0.00 9.36,0.00 9.45,0.00 9.53,0.00 9.60,0.00 9.66,0.00 9.72,0.00 9.77,0.00 9.82,0.00 9.86,0.00 9.90,0.00 9.94,0.00 9.97,0.00 9.99,0.00 10.02,0.00 10.04,0.00 10.05,0.00 10.07,0.00 10.08,0.00 10.10,0.00 10.11,0.00 10.12,0.00 10.12,0.00 10.13,0.00 10.13,0.00 10.14,0.00 10.14,0.00 10.14,0.00 10.14,0.00 10.14,0.00 10.14,0.00 10.14,0.00 10.14,0.00 10.14,0.00 10.14,0.00 10.14,0.00 10.13,0.00 10.13,0.00 10.13,0.00 10.13,0.00 10.12,0.00 10.12,0.00 10.12,0.00 10.11,0.00 10.11,0.00 10.11,0.00 10.10,0.00 10.10,0.00 10.10,0.00 10.09,0.00 10.09,0.00 10.09,0.00 10.08,0.00 10.08,0.00 10.08,0.00 10.08,0.00 10.07,0.00 10.07,0.00 10.07,0.00 10.06,0.00 10.06,0.00 10.06,0.00 10.06,0.00 10.05,0.00 10.05,0.00 10.05,0.00 10.05,0.00 10.05,0.00 10.04,0.00 10.04,0.00 10.04,0.00 10.04,0.00 10.04,0.00 10.03,0.00 10.03,0.00 10.03,0.00 10.03,0.00 10.03,0.00 10.03,0.00 10.03,0.00 10.03,0.00 10.02,0.00 10.02,0.00 10.02,0.00 10.02,0.00 10.02,0.00 10.02,0.00 10.02,0.00 10.02,0.00 10.02,0.00 10.02,0.00 10.01,0.00 10.01,0.00 10.01,0.00 10.01,0.00 10.01,0.00 10.01,0.00 10.01,0.00 10.01,0.00 10.01,0.00 10.01,0.00 10.01,0.00 10.01,0.00 10.01,0.00 10.01,0.00 10.01,0.00 10.01,0.00 10.01,0.00 10.01,0.00 10.01,0.00 10.01,0.00 10.01,0.00 10.00,0.00 10.00,0.00 10.00,0.00 10.00,0.00 10.00,0.00 10.00,0.00 10.00,0.00 10.00,0.00 10.00,0.00 10.00,0.00 10.00,0.00 10.00,0.00 10.00,0.00 10.00,0.00 10.00,0.00 10.00,0.00 10.00,0.00 10.00,0.00 10.00,0.00 10.00,0.00 10.00,0.00 10.00,0.00 10.00,0.00 10.00,0.00 10.00,0.00 10.00,0.00 10.00,0.00 10.00,0.00 10.00,0.00 10.00,0.00 10.00,0.00 10.00,0.00 10.00,0.00 10.00,0.00 10.00,0.00 10.00,0.00 10.00,0.00 10.00,0.00 10.00,0.00 10.00,0.00 10.00,0.00 10.00,0.00 10.00,0.00 10.00,0.00 10.00,0.00 10.00,0.00 10.00,0.00 10.00,0.00 10.00,0.00 10.00,0.00 10.00,0.00 10.00,0.00 10.00,0.00 10.00,0.00 10.00,0.00 10.00,0.00 10.00,0.00 10.00,0.00"/>
        <foePosition values="48.77,48.35 49.77,48.35 50.77,48.35 51.77,48.35 52.77,48.35 53.77,48.35 54.77,48.35 55.77,48.35 56.77,48.35 57.77,48.35 58.77,48.35 59.77,48.35 60.77,48.35 61.77,48.35 62.77,48.35 63.77,48.35 64.77,48.35 65.77,48.35 66.77,48.35 67.77,48.35 68.77,48.35 69.77,48.35 70.77,48.35 71.77,48.35 72.77,48.35 73.77,48.35 74.77,48.35 75.77,48.35 76.77,48.35 77.77,48.35 78.77,48.35 79.77,48.35 80.77,48.35 81.77,48.35 82.77,48.35 83.77,48.35 84.77,48.35 85.77,48.35 86.77,48.35 87.77,48.35 88.77,48.35 89.75,48.35 90.68,48.35 91.58,48.35 92.43,48.35 93.23,48.35 93.99,48.35 94.70,48.35 95.37,48.35 95.99,48.35 96.57,48.35 97.10,48.35 97.59,48.35 98.03,48.35 98.43,48.35 98.79,48.35 99.09,48.35 99.36,48.35 99.57,48.35 99.75,48.35 99.88,48.35 99.96,48.35 100.00,48.35 100.00,48.35 100.00,48.35 100.00,48.35 100.00,48.35 100.00,48.35 100.00,48.35 100.00,48.35 100.00,48.35 100.00,48.35 100.00,48.35 100.01,48.35 100.05,48.35 100.12,48.35 100.21,48.35 100.33,48.35 100.47,48.35 100.64,48.35 100.83,48.35 101.05,48.35 101.30,48.35 101.57,48.35 101.87,48.35 102.20,48.35 102.55,48.35 102.93,48.35 103.33,48.35 103.76,48.35 104.21,48.35 104.69,48.35 105.20,48.35 105.73,48.35 106.29,48.35 106.88,48.35 107.49,48.35 108.13,48.35 108.79,48.35 109.48,48.35 110.19,48.35 110.93,48.35 111.70,48.35 112.49,48.35 113.31,48.35 114.16,48.35 115.03,48.35 115.93,48.35 116.85,48.35 117.80,48.35 118.77,48.35 119.77,48.35 120.77,48.35 121.77,48.35 122.77,48.35 123.77,48.35 124.77,48.35 125.77,48.35 126.77,48.35 127.77,48.35 128.77,48.35 129.77,48.35 130.77,48.35 131.77,48.35 132.77,48.35 133.77,48.35 134.77,48.35 135.77,48.35 136.77,48.35 137.77,48.35 138.77,48.35 139.77,48.35 140.77,48.35 141.77,48.35 142.77,48.35 143.77,48.35 144.77,48.35 145.77,48.35 146.77,48.35 147.77,48.35 148.77,48.35 149.77,48.35 150.77,48.35 151.77,48.35 152.77,48.35 153.77,48.35 154.77,48.35 155.77,48.35 156.77,48.35 157.77,48.35 158.77,48.35 159.77,48.35 160.77,48.35 161.77,48.35 162.77,48.35 163.77,48.35 164.77,48.35 165.77,48.35 166.77,48.35 167.77,48.35 168.77,48.35 169.77,48.35 170.77,48.35 171.77,48.35 172.77,48.35 173.77,48.35 174.77,48.35 175.77,48.35 176.77,48.35 177.77,48.35 178.77,48.35 179.77,48.35 180.77,48.35 181.77,48.35 182.77,48.35 183.77,48.35 184.77,48.35 185.77,48.35 186.77,48.35 187.77,48.35 188.77,48.35 189.77,48.35 190.77,48.35 191.77,48.35 192.77,48.35 193.77,48.35 194.77,48.35 195.77,48.35 196.77,48.35 197.77,48.35 198.77,48.35 199.77,48.35 200.77,48.35 201.77,48.35 202.77,48.35 203.77,48.35 204.77,48.35 205.77,48.35 206.77,48.35 207.77,48.35 208.77,48.35 209.77,48.35 210.77,48.35 211.77,48.35 212.77,48.35 213.77,48.35 214.77,48.35 215.77,48.35 216.77,48.35 217.77,48.35 218.77,48.35 219.77,48.35 220.77,48.35 221.77,48.35 222.77,48.35 223.77,48.35 224.77,48.35 225.77,48.35 226.77,48.35 227.77,48.35 228.77,48.35 229.77,48.35 230.77,48.35 231.77,48.35 232.77,48.35 233.77,48.35 234.77,48.35 235.77,48.35 236.77,48.35 237.77,48.35 238.77,48.35 239.77,48.35 240.77,48.35 241.77,48.35 242.77,48.35 243.77,48.35 244.77,48.35 245.77,48.35 246.77,48.35 247.77,48.35 248.77,48.35 249.77,48.35 250.77,48.35 251.77,48.35 252.77,48.35 253.77,48.35 254.77,48.35 255.77,48.35 256.77,48.35 257.77,48.35 258.77,48.35 259.77,48.35 260.77,48.35 261.77,48.35 262.77,48.35 263.77,48.35 264.77,48.35 265.77,48.35 266.77,48.35 267.77,48.35 268.77,48.35 269.77,48.35 270.77,48.35 271.77,48.35 272.77,48.35 273.77,48.35 274.77,48.35 275.77,48.35 276.77,48.35 277.77,48.35 278.77,48.35 279.77,48.35 280.77,48.35 281.77,48.35 282.77,48.35 283.77,48.35 284.77,48.35 285.77,48.35 286.77,48.35 287.77,48.35 288.77,48.35 289.77,48.35 290.77,48.35 291.77,48.35 292.77,48.35 293.77,48.35 294.77,48.35 295.77,48.35 296.77,48.35 297.77,48.35 298.77,48.35 299.77,48.35"/>
        <foeVelocity values="10.00,0.00 10.00,0.00 10.00,0.00 10.00,0.00 10.00,0.00 10.00,0.00 10.00,0.00 10.00,0.00 10.00,0.00 10.00,0.00 10.00,0.00 10.00,0.00 10.00,0.00 10.00,0.00 10.00,0.00 10.00,0.00 10.00,0.00 10.00,0.00 10.00,0.00 10.00,0.00 10.00,0.00 10.00,0.00 10.00,0.00 10.00,0.00 10.00,0.00 10.00,0.00 10.00,0.00 10.00,0.00 10.00,0.00 10.00,0.00 10.00,0.00 10.00,0.00 10.00,0.00 10.00,0.00 10.00,0.00 10.00,0.00 10.00,0.00 10.00,0.00 10.00,0.00 10.00,0.00 10.00,0.00 9.61,0.00 9.16,0.00 8.71,0.00 8.26,0.00 7.81,0.00 7.36,0.00 6.91,0.00 6.46,0.00 6.01,0.00 5.56,0.00 5.11,0.00 4.66,0.00 4.21,0.00 3.76,0.00 3.31,0.00 2.86,0.00 2.41,0.00 1.96,0.00 1.51,0.00 1.06,0.00 0.61,0.00 0.16,0.00 0.00,0.00 0.00,0.00 0.00,0.00 0.00,0.00 0.00,0.00 0.00,0.00 0.00,0.00 0.00,0.00 0.00,0.00 0.00,0.00 0.26,0.00 0.52,0.00 0.78,0.00 1.04,0.00 1.30,0.00 1.56,0.00 1.82,0.00 2.08,0.00 2.34,0.00 2.60,0.00 2.86,0.00 3.12,0.00 3.38,0.00 3.64,0.00 3.90,0.00 4.16,0.00 4.42,0.00 4.68,0.00 4.94,0.00 5.20,0.00 5.46,0.00 5.72,0.00 5.98,0.00 6.24,0.00 6.50,0.00 6.76,0.00 7.02,0.00 7.28,0.00 7.54,0.00 7.80,0.00 8.06,0.00 8.32,0.00 8.58,0.00 8.84,0.00 9.10,0.00 9.36,0.00 9.62,0.00 9.88,0.00 10.00,0.00 10.00,0.00 10.00,0.00 10.00,0.00 10.00,0.00 10.00,0.00 10.00,0.00 10.00,0.00 10.00,0.00 10.00,0.00 10.00,0.00 10.00,0.00 10.00,0.00 10.00,0.00 10.00,0.00 10.00,0.00 10.00,0.00 10.00,0.00 10.00,0.00 10.00,0.00 10.00,0.00 10.00,0.00 10.00,0.00 10.00,0.00 10.00,0.00 10.00,0.00 10.00,0.00 10.00,0.00 10.00,0.00 10.00,0.00 10.00,0.00 10.00,0.00 10.00,0.00 10.00,0.00 10.00,0.00 10.00,0.00 10.00,0.00 10.00,0.00 10.00,0.00 10.00,0.00 10.00,0.00 10.00,0.00 10.00,0.00 10.00,0.00 10.00,0.00 10.00,0.00 10.00,0.00 10.00,0.00 10.00,0.00 10.00,0.00 10.00,0.00 10.00,0.00 10.00,0.00 10.00,0.00 10.00,0.00 10.00,0.00 10.00,0.00 10.00,0.00 10.00,0.00 10.00,0.00 10.00,0.00 10.00,0.00 10.00,0.00 10.00,0.00 10.00,0.00 10.00,0.00 10.00,0.00 10.00,0.00 10.00,0.00 10.00,0.00 10.00,0.00 10.00,0.00 10.00,0.00 10.00,0.00 10.00,0.00 10.00,0.00 10.00,0.00 10.00,0.00 10.00,0.00 10.00,0.00 10.00,0.00 10.00,0.00 10.00,0.00 10.00,0.00 10.00,0.00 10.00,0.00 10.00,0.00 10.00,0.00 10.00,0.00 10.00,0.00 10.00,0.00 10.00,0.00 10.00,0.00 10.00,0.00 10.00,0.00 10.00,0.00 10.00,0.00 10.00,0.00 10.00,0.00 10.00,0.00 10.00,0.00 10.00,0.00 10.00,0.00 10.00,0.00 10.00,0.00 10.00,0.00 10.00,0.00 10.00,0.00 10.00,0.00 10.00,0.00 10.00,0.00 10.00,0.00 10.00,0.00 10.00,0.00 10.00,0.00 10.00,0.00 10.00,0.00 10.00,0.00 10.00,0.00 10.00,0.00 10.00,0.00 10.00,0.00 10.00,0.00 10.00,0.00 10.00,0.00 10.00,0.00 10.00,0.00 10.00,0.00 10.00,0.00 10.00,0.00 10.00,0.00 10.00,0.00 10.00,0.00 10.00,0.00 10.00,0.00 10.00,0.00 10.00,0.00 10.00,0.00 10.00,0.00 10.00,0.00 10.00,0.00 10.00,0.00 10.00,0.00 10.00,0.00 10.00,0.00 10.00,0.00 10.00,0.00 10.00,0.00 10.00,0.00 10.00,0.00 10.00,0.00 10.00,0.00 10.00,0.00 10.00,0.00 10.00,0.00 10.00,0.00 10.00,0.00 10.00,0.00 10.00,0.00 10.00,0.00 10.00,0.00 10.00,0.00 10.00,0.00 10.00,0.00 10.00,0.00 10.00,0.00 10.00,0.00 10.00,0.00 10.00,0.00 10.00,0.00 10.00,0.00 10.00,0.00 10.00,0.00 10.00,0.00 10.00,0.00 10.00,0.00 10.00,0.00 10.00,0.00 10.00,0.00 10.00,0.00 10.00,0.00"/>
        <conflictPoint values="43.77,48.35 44.77,48.35 45.77,48.35 46.77,48.35 47.77,48.35 48.77,48.35 49.77,48.35 50.77,48.35 51.77,48.35 52.77,48.35 53.77,48.35 54.77,48.35 55.77,48.35 56.77,48.35 57.77,48.35 58.77,48.35 59.77,48.35 60.77,48.35 61.77,48.35 62.77,48.35 63.77,48.35 64.77,48.35 65.77,48.35 66.77,48.35 67.77,48.35 68.77,48.35 69.77,48.35 70.77,48.35 71.77,48.35 72.77,48.35 73.77,48.35 74.77,48.35 75.77,48.35 76.77,48.35 77.77,48.35 78.77,48.35 79.77,48.35 80.77,48.35 81.77,48.35 82.77,48.35 83.77,48.35 84.75,48.35 85.68,48.35 86.58,48.35 87.43,48.35 88.23,48.35 88.99,48.35 89.70,48.35 90.37,48.35 90.99,48.35 91.57,48.35 92.10,48.35 92.59,48.35 93.03,48.35 93.43,48.35 93.79,48.35 94.09,48.35 94.36,48.35 94.57,48.35 94.75,48.35 94.88,48.35 94.96,48.35 95.00,48.35 95.00,48.35 95.00,48.35 95.00,48.35 95.00,48.35 95.00,48.35 95.00,48.35 95.00,48.35 95.00,48.35 95.00,48.35 95.00,48.35 95.01,48.35 95.05,48.35 95.12,48.35 95.21,48.35 95.33,48.35 95.47,48.35 95.64,48.35 95.83,48.35 96.05,48.35 96.30,48.35 96.57,48.35 96.87,48.35 97.20,48.35 97.55,48.35 97.93,48.35 98.33,48.35 98.76,48.35 99.21,48.35 99.69,48.35 100.20,48.35 100.73,48.35 101.29,48.35 101.88,48.35 102.49,48.35 103.13,48.35 103.79,48.35 104.48,48.35 105.19,48.35 105.93,48.35 106.70,48.35 107.49,48.35 108.31,48.35 109.16,48.35 110.03,48.35 110.93,48.35 111.85,48.35 112.80,48.35 113.77,48.35 114.77,48.35 115.77,48.35 116.77,48.35 117.77,48.35 118.77,48.35 119.77,48.35 120.77,48.35 121.77,48.35 122.77,48.35 123.77,48.35 124.77,48.35 125.77,48.35 126.77,48.35 127.77,48.35 128.77,48.35 129.77,48.35 130.77,48.35 131.77,48.35 132.77,48.35 133.77,48.35 134.77,48.35 135.77,48.35 136.77,48.35 137.77,48.35 138.77,48.35 139.77,48.35 140.77,48.35 141.77,48.35 142.77,48.35 143.77,48.35 144.77,48.35 145.77,48.35 146.77,48.35 147.77,48.35 148.77,48.35 149.77,48.35 150.77,48.35 151.77,48.35 152.77,48.35 153.77,48.35 154.77,48.35 155.77,48.35 156.77,48.35 157.77,48.35 158.77,48.35 159.77,48.35 160.77,48.35 161.77,48.35 162.77,48.35 163.77,48.35 164.77,48.35 165.77,48.35 166.77,48.35 167.77,48.35 168.77,48.35 169.77,48.35 170.77,48.35 171.77,48.35 172.77,48.35 173.77,48.35 174.77,48.35 175.77,48.35 176.77,48.35 177.77,48.35 178.77,48.35 179.77,48.35 180.77,48.35 181.77,48.35 182.77,48.35 183.77,48.35 184.77,48.35 185.77,48.35 186.77,48.35 187.77,48.35 188.77,48.35 189.77,48.35 190.77,48.35 191.77,48.35 192.77,48.35 193.77,48.35 194.77,48.35 195.77,48.35 196.77,48.35 197.77,48.35 198.77,48.35 199.77,48.35 200.77,48.35 201.77,48.35 202.77,48.35 203.77,48.35 204.77,48.35 205.77,48.35 206.77,48.35 207.77,48.35 208.77,48.35 209.77,48.35 210.77,48.35 211.77,48.35 212.77,48.35 213.77,48.35 214.77,48.35 215.77,48.35 216.77,48.35 217.77,48.35 218.77,48.35 219.77,48.35 220.77,48.35 221.77,48.35 222.77,48.35 223.77,48.35 224.77,48.35 225.77,48.35 226.77,48.35 227.77,48.35 228.77,48.35 229.77,48.35 230.77,48.35 231.77,48.35 232.77,48.35 233.77,48.35 234.77,48.35 235.77,48.35 236.77,48.35 237.77,48.35 238.77,48.35 239.77,48.35 240.77,48.35 241.77,48.35 242.77,48.35 243.77,48.35 244.77,48.35 245.77,48.35 246.77,48.35 247.77,48.35 248.77,48.35 249.77,48.35 250.77,48.35 251.77,48.35 252.77,48.35 253.77,48.35 254.77,48.35 255.77,48.35 256.77,48.35 257.77,48.35 258.77,48.35 259.77,48.35 260.77,48.35 261.77,48.35 262.77,48.35 263.77,48.35 264.77,48.35 265.77,48.35 266.77,48.35 267.77,48.35 268.77,48.35 269.77,48.35 270.77,48.35 271.77,48.35 272.77,48.35 273.77,48.35 274.77,48.35 275.77,48.35 276.77,48.35 277.77,48.35 278.77,48.35 279.77,48.35 280.77,48.35 281.77,48.35 282.77,48.35 283.77,48.35 284.77,48.35 285.77,48.35 286.77,48.35 287.77,48.35 288.77,48.35 289.77,48.35 290.77,48.35 291.77,48.35 292.77,48.35 293.77,48.35 294.77,48.35"/>
        <TTCSpan values="7.20 7.30 7.40 7.52 7.64 7.77 7.92 8.07 8.23 8.40 8.58 8.77 8.97 9.19 9.42 9.66 9.91 10.18 10.46 10.76 11.07 11.41 11.75 12.12 12.51 12.92 13.35 13.80 14.27 14.77 15.30 15.85 16.44 17.05 17.70 18.38 19.09 19.85 20.64 21.48 22.36 13.93 9.87 7.73 6.40 5.49 4.82 4.30 3.88 3.53 3.23 2.98 2.75 2.54 2.36 2.18 2.02 1.87 1.73 1.59 1.46 1.34 1.22 1.16 1.16 1.16 1.17 1.19 1.23 1.30 1.41 1.58 1.86 3.08 9.45 NA NA NA NA NA NA NA NA NA NA NA NA NA NA NA NA NA NA NA NA NA NA NA NA NA NA NA NA NA NA NA NA NA NA NA NA NA NA NA NA NA NA NA NA NA NA NA NA NA NA NA NA NA NA NA NA NA NA NA NA NA 840.41 360.15 239.80 185.59 155.10 135.83 122.75 113.47 106.70 101.68 97.94 95.17 93.16 91.77 90.88 90.43 90.34 90.58 91.12 91.92 92.98 94.27 95.78 97.52 99.46 101.62 103.99 106.56 109.35 112.35 115.58 119.02 122.70 126.62 130.78 135.20 139.89 144.85 150.10 155.66 161.53 167.73 174.28 181.19 188.49 196.19 204.31 212.87 221.90 231.42 241.46 252.04 263.20 274.96 287.36 300.44 314.22 328.75 344.07 360.23 377.26 395.22 414.17 434.14 455.22 477.44 500.89 525.63 551.73 579.27 608.34 639.01 671.38 705.55 741.63 779.71 819.92 862.39 907.23 954.59 1004.61 1057.46 1113.29 1172.27 1234.60 1300.46 1370.07 1443.64 1521.41 1603.62 1690.54 1782.45 1879.63 1982.40 2091.10 2206.07 2327.69 2456.35 2592.47 2736.50 2888.92 3050.21 3220.93 3401.62 3592.89 3795.38 4009.76 4236.75 4477.12 4731.66 5001.24 5286.77 5589.23 5909.63 6249.07 6608.70 6989.77 7393.58 7821.53 8275.08 8755.80 9265.38 9805.57 10378.26 10985.46 11629.29 12312.00 13036.02 13803.88 14618.30 15482.18 16398.58 17370.76 18402.20 19496.59 20657.85 21890.15 23197.95 24585.95 26059.19 27623.01 29283.08 31045.48 32916.62 34903.35 37012.98 39253.24 41632.41 44159.25 46843.12 49693.98 52722.43 55939.73 59357.91 62989.76 66848.88"/>
        <minTTC time="13.30" position="95.00,48.35" type="2" value="1.16"/>
        <DRACSpan values="0.19 0.18 0.18 0.17 0.16 0.15 0.15 0.14 0.13 0.12 0.12 0.11 0.11 0.10 0.09 0.09 0.08 0.08 0.07 0.07 0.06 0.06 0.06 0.05 0.05 0.05 0.04 0.04 0.04 0.03 0.03 0.03 0.03 0.02 0.02 0.02 0.02 0.02 0.02 0.01 0.01 0.04 0.07 0.11 0.16 0.22 0.27 0.34 0.40 0.48 0.55 0.63 0.71 0.80 0.89 1.00 1.11 1.23 1.36 1.51 1.68 1.87 2.09 2.09 1.95 1.79 1.61 1.42 1.22 1.01 0.80 0.60 0.41 0.14 0.01 NA NA NA NA NA NA NA NA NA NA NA NA NA NA NA NA NA NA NA NA NA NA NA NA NA NA NA NA NA NA NA NA NA NA NA NA NA NA NA NA NA NA NA NA NA NA NA NA NA NA NA NA NA NA NA NA NA NA NA NA NA 0.00 0.00 0.00 0.00 0.00 0.00 0.00 0.00 0.00 0.00 0.00 0.00 0.00 0.00 0.00 0.00 0.00 0.00 0.00 0.00 0.00 0.00 0.00 0.00 0.00 0.00 0.00 0.00 0.00 0.00 0.00 0.00 0.00 0.00 0.00 0.00 0.00 0.00 0.00 0.00 0.00 0.00 0.00 0.00 0.00 0.00 0.00 0.00 0.00 0.00 0.00 0.00 0.00 0.00 0.00 0.00 0.00 0.00 0.00 0.00 0.00 0.00 0.00 0.00 0.00 0.00 0.00 0.00 0.00 0.00 0.00 0.00 0.00 0.00 0.00 0.00 0.00 0.00 0.00 0.00 0.00 0.00 0.00 0.00 0.00 0.00 0.00 0.00 0.00 0.00 0.00 0.00 0.00 0.00 0.00 0.00 0.00 0.00 0.00 0.00 0.00 0.00 0.00 0.00 0.00 0.00 0.00 0.00 0.00 0.00 0.00 0.00 0.00 0.00 0.00 0.00 0.00 0.00 0.00 0.00 0.00 0.00 0.00 0.00 0.00 0.00 0.00 0.00 0.00 0.00 0.00 0.00 0.00 0.00 0.00 0.00 0.00 0.00 0.00 0.00 0.00 0.00 0.00 0.00 0.00 0.00 0.00 0.00 0.00 0.00 0.00 0.00 0.00 0.00 0.00 0.00"/>
        <maxDRAC time="13.10" position="95.00,48.35" type="2" value="2.09"/>
        <PET time="NA" position="NA" type="NA" value="NA"/>
        <MDRACSpan values="0.22 0.21 0.20 0.19 0.18 0.18 0.17 0.16 0.15 0.14 0.13 0.13 0.12 0.11 0.11 0.10 0.09 0.09 0.08 0.08 0.07 0.07 0.06 0.06 0.05 0.05 0.05 0.04 0.04 0.04 0.03 0.03 0.03 0.03 0.02 0.02 0.02 0.02 0.02 0.02 0.01 0.04 0.08 0.13 0.19 0.26 0.35 0.44 0.55 0.66 0.80 0.95 1.12 1.32 1.55 1.84 2.19 2.63 3.22 4.05 5.30 7.41 11.81 14.81 14.43 13.25 11.31 8.91 6.48 4.38 2.77 1.63 0.88 0.21 0.02 NA NA NA NA NA NA NA NA NA NA NA NA NA NA NA NA NA NA NA NA NA NA NA NA NA NA NA NA NA NA NA NA NA NA NA NA NA NA NA NA NA NA NA NA NA NA NA NA NA NA NA NA NA NA NA NA NA NA NA NA NA 0.00 0.00 0.00 0.00 0.00 0.00 0.00 0.00 0.00 0.00 0.00 0.00 0.00 0.00 0.00 0.00 0.00 0.00 0.00 0.00 0.00 0.00 0.00 0.00 0.00 0.00 0.00 0.00 0.00 0.00 0.00 0.00 0.00 0.00 0.00 0.00 0.00 0.00 0.00 0.00 0.00 0.00 0.00 0.00 0.00 0.00 0.00 0.00 0.00 0.00 0.00 0.00 0.00 0.00 0.00 0.00 0.00 0.00 0.00 0.00 0.00 0.00 0.00 0.00 0.00 0.00 0.00 0.00 0.00 0.00 0.00 0.00 0.00 0.00 0.00 0.00 0.00 0.00 0.00 0.00 0.00 0.00 0.00 0.00 0.00 0.00 0.00 0.00 0.00 0.00 0.00 0.00 0.00 0.00 0.00 0.00 0.00 0.00 0.00 0.00 0.00 0.00 0.00 0.00 0.00 0.00 0.00 0.00 0.00 0.00 0.00 0.00 0.00 0.00 0.00 0.00 0.00 0.00 0.00 0.00 0.00 0.00 0.00 0.00 0.00 0.00 0.00 0.00 0.00 0.00 0.00 0.00 0.00 0.00 0.00 0.00 0.00 0.00 0.00 0.00 0.00 0.00 0.00 0.00 0.00 0.00 0.00 0.00 0.00 0.00 0.00 0.00 0.00 0.00 0.00 0.00"/>
        <maxMDRAC time="13.10" position="95.00,48.35" type="2" value="14.81"/>
        <DCIASpan values="-0.21 -0.20 -0.19 -0.18 -0.17 -0.16 -0.15 -0.15 -0.14 -0.13 -0.12 -0.11 -0.11 -0.10 -0.09 -0.09 -0.08 -0.08 -0.07 -0.07 -0.06 -0.06 -0.05 -0.05 -0.04 -0.04 -0.04 -0.04 -0.03 -0.03 -0.03 -0.03 -0.02 -0.02 -0.02 -0.02 -0.02 -0.02 -0.01 -0.01 -0.01 -3.51 -4.02 -4.13 -4.24 -4.35 -4.47 -4.59 -4.71 -4.84 -4.98 -5.14 -5.30 -5.49 -5.71 -5.96 -6.27 -6.64 -7.12 -7.77 -8.69 -10.13 -12.70 37.25 2.88 1.31 0.04 -1.06 -2.13 -3.29 -4.71 -6.70 -10.17 -11.91 -25.63 NA NA NA NA NA NA NA NA NA NA NA NA NA NA NA NA NA NA NA NA NA NA NA NA NA NA NA NA NA NA NA NA NA NA NA NA NA NA NA NA NA NA NA NA NA NA NA NA NA NA NA NA NA NA NA NA NA NA NA NA NA 0.00 0.00 0.00 0.00 0.00 0.00 -0.00 -0.00 -0.00 -0.00 -0.00 -0.00 -0.00 -0.00 -0.00 -0.00 -0.00 -0.00 -0.00 -0.00 -0.00 -0.00 -0.00 -0.00 -0.00 -0.00 -0.00 -0.00 -0.00 -0.00 -0.00 -0.00 -0.00 -0.00 -0.00 -0.00 -0.00 -0.00 -0.00 -0.00 -0.00 -0.00 -0.00 -0.00 -0.00 -0.00 -0.00 -0.00 -0.00 -0.00 -0.00 -0.00 -0.00 -0.00 -0.00 -0.00 -0.00 -0.00 -0.00 -0.00 -0.00 -0.00 -0.00 -0.00 -0.00 -0.00 -0.00 -0.00 -0.00 -0.00 -0.00 -0.00 -0.00 -0.00 -0.00 -0.00 -0.00 -0.00 -0.00 -0.00 -0.00 -0.00 -0.00 -0.00 -0.00 -0.00 -0.00 -0.00 -0.00 -0.00 -0.00 -0.00 -0.00 -0.00 -0.00 -0.00 -0.00 -0.00 -0.00 -0.00 -0.00 -0.00 -0.00 -0.00 -0.00 -0.00 -0.00 -0.00 -0.00 -0.00 -0.00 -0.00 -0.00 -0.00 -0.00 -0.00 -0.00 -0.00 -0.00 -0.00 -0.00 -0.00 -0.00 -0.00 -0.00 -0.00 -0.00 -0.00 -0.00 -0.00 -0.00 -0.00 -0.00 -0.00 -0.00 -0.00 -0.00 -0.00 -0.00 -0.00 -0.00 -0.00 -0.00 -0.00 -0.00 -0.00 -0.00 -0.00 -0.00 -0.00 -0.00 -0.00 -0.00 -0.00 -0.00 -0.00"/>
        <maxDCIA time="13.10" position="95.00,48.35" type="2" value="37.25"/>
    </conflict>
    <globalMeasures ego="ego1">
        <timeSpan values="5.00 5.10 5.20 5.30 5.40 5.50 5.60 5.70 5.80 5.90 6.00 6.10 6.20 6.30 6.40 6.50 6.60 6.70 6.80 6.90 7.00 7.10 7.20 7.30 7.40 7.50 7.60 7.70 7.80 7.90 8.00 8.10 8.20 8.30 8.40 8.50 8.60 8.70 8.80 8.90 9.00 9.10 9.20 9.30 9.40 9.50 9.60 9.70 9.80 9.90 10.00 10.10 10.20 10.30 10.40 10.50 10.60 10.70 10.80 10.90 11.00 11.10 11.20 11.30 11.40 11.50 11.60 11.70 11.80 11.90 12.00 12.10 12.20 12.30 12.40 12.50 12.60 12.70 12.80 12.90 13.00 13.10 13.20 13.30 13.40 13.50 13.60 13.70 13.80 13.90 14.00 14.10 14.20 14.30 14.40 14.50 14.60 14.70 14.80 14.90 15.00 15.10 15.20 15.30 15.40 15.50 15.60 15.70 15.80 15.90 16.00 16.10 16.20 16.30 16.40 16.50 16.60 16.70 16.80 16.90 17.00 17.10 17.20 17.30 17.40 17.50 17.60 17.70 17.80 17.90 18.00 18.10 18.20 18.30 18.40 18.50 18.60 18.70 18.80 18.90 19.00 19.10 19.20 19.30 19.40 19.50 19.60 19.70 19.80 19.90 20.00 20.10 20.20 20.30 20.40 20.50 20.60 20.70 20.80 20.90 21.00 21.10 21.20 21.30 21.40 21.50 21.60 21.70 21.80 21.90 22.00 22.10 22.20 22.30 22.40 22.50 22.60 22.70 22.80 22.90 23.00 23.10 23.20 23.30 23.40 23.50 23.60 23.70 23.80 23.90 24.00 24.10 24.20 24.30 24.40 24.50 24.60 24.70 24.80 24.90 25.00 25.10 25.20 25.30 25.40 25.50 25.60 25.70 25.80 25.90 26.00 26.10 26.20 26.30 26.40 26.50 26.60 26.70 26.80 26.90 27.00 27.10 27.20 27.30 27.40 27.50 27.60 27.70 27.80 27.90 28.00 28.10 28.20 28.30 28.40 28.50 28.60 28.70 28.80 28.90 29.00 29.10 29.20 29.30 29.40 29.50 29.60 29.70 29.80 29.90 30.00 30.10 30.20 30.30 30.40 30.50 30.60 30.70 30.80 30.90 31.00 31.10 31.20 31.30 31.40 31.50 31.60 31.70 31.80 31.90 32.00 32.10 32.20 32.30 32.40 32.50 32.60 32.70 32.80 32.90 33.00 33.10 33.20 33.30 33.40 33.50 33.60 33.70 33.80 33.90 34.00 34.10 34.20 34.30 34.40 34.50 34.60 34.70 34.80 34.90 35.00 35.10 35.20 35.30 35.40 35.50 35.60 35.70 35.80 35.90 36.00 36.10 36.20 36.30 36.40 36.50 36.60 36.70 36.80 36.90 37.00 37.10 37.20 37.30 37.40"/>