<?xml version="1.0" encoding="UTF-8"?>

<!-- generated on 2023-06-02 14:16:55 by Eclipse SUMO sumo Version 1215d8ae5c
This data file and the accompanying materials
are made available under the terms of the Eclipse Public License v2.0
which accompanies this distribution, and is available at
http://www.eclipse.org/legal/epl-v20.html
This file may also be made available under the following Secondary
Licenses when the conditions for such availability set forth in the Eclipse
Public License 2.0 are satisfied: GNU General Public License, version 2
or later which is available at
https://www.gnu.org/licenses/old-licenses/gpl-2.0-standalone.html
SPDX-License-Identifier: EPL-2.0 OR GPL-2.0-or-later
<configuration xmlns:xsi="http://www.w3.org/2001/XMLSchema-instance" xsi:noNamespaceSchemaLocation="http://sumo.dlr.de/xsd/sumoConfiguration.xsd">

    <input>
        <net-file value="net2.net.xml"/>
        <route-files value="input_routes.rou.xml"/>
    </input>

    <output>
        <write-license value="true"/>
    </output>

    <time>
        <step-length value="0.1"/>
    </time>

    <processing>
        <step-method.ballistic value="true"/>
        <default.speeddev value="0"/>
    </processing>

    <report>
        <xml-validation value="never"/>
        <no-step-log value="true"/>
    </report>

</configuration>
-->

<SSMLog>
    <conflict begin="1.00" end="12.00" ego="ego1" foe="foe1">
        <timeSpan values="1.00 1.10 1.20 1.30 1.40 1.50 1.60 1.70 1.80 1.90 2.00 2.10 2.20 2.30 2.40 2.50 2.60 2.70 2.80 2.90 3.00 3.10 3.20 3.30 3.40 3.50 3.60 3.70 3.80 3.90 4.00 4.10 4.20 4.30 4.40 4.50 4.60 4.70 4.80 4.90 5.00 5.10 5.20 5.30 5.40 5.50 5.60 5.70 5.80 5.90 6.00 6.10 6.20 6.30 6.40 6.50 6.60 6.70 6.80 6.90 7.00 7.10 7.20 7.30 7.40 7.50 7.60 7.70 7.80 7.90 8.00 8.10 8.20 8.30 8.40 8.50 8.60 8.70 8.80 8.90 9.00 9.10 9.20 9.30 9.40 9.50 9.60 9.70 9.80 9.90 10.00 10.10 10.20 10.30 10.40 10.50 10.60 10.70 10.80 10.90 11.00 11.10 11.20 11.30 11.40 11.50 11.60 11.70 11.80 11.90 12.00"/>
        <typeSpan values="11 11 11 11 11 11 11 11 11 11 11 11 11 11 11 11 11 11 11 11 11 11 11 11 11 11 11 11 11 11 11 11 11 11 11 11 11 11 11 11 11 11 11 11 10 10 10 10 10 10 10 10 10 10 10 10 10 10 10 10 10 10 10 10 10 10 10 10 10 10 12 12 12 12 12 12 12 12 14 14 14 14 14 14 14 14 14 14 14 14 14 14 16 16 16 16 16 16 16 16 16 16 16 16 16 16 16 16 16 16 17"/>
        <egoPosition values="101.65,-50.00 101.65,-48.61 101.65,-47.22 101.65,-45.83 101.65,-44.44 101.65,-43.05 101.65,-41.67 101.65,-40.28 101.65,-38.89 101.65,-37.50 101.65,-36.11 101.65,-34.72 101.65,-33.33 101.65,-31.94 101.65,-30.55 101.65,-29.17 101.65,-27.78 101.65,-26.39 101.65,-25.00 101.65,-23.61 101.65,-22.22 101.65,-20.83 101.65,-19.44 101.65,-18.05 101.65,-16.66 101.65,-15.28 101.65,-13.89 101.65,-12.50 101.65,-11.11 101.65,-9.72 101.65,-8.33 101.65,-6.94 101.65,-5.55 101.65,-4.16 101.65,-2.77 101.65,-1.38 101.65,0.00 101.65,1.39 101.65,2.78 101.65,4.17 101.65,5.56 101.65,6.95 101.65,8.34 101.65,9.73 101.65,11.12 101.65,12.51 101.65,13.89 101.65,15.28 101.65,16.67 101.65,18.06 101.65,19.45 101.65,20.84 101.65,22.23 101.65,23.62 101.65,25.01 101.65,26.40 101.65,27.78 101.65,29.17 101.65,30.56 101.65,31.95 101.65,33.34 101.65,34.73 101.65,36.12 101.65,37.51 101.65,38.90 101.65,40.28 101.65,41.67 101.65,43.06 101.65,44.45 101.65,45.84 101.65,47.23 101.65,48.62 101.65,50.01 101.65,51.40 101.65,52.79 101.65,54.17 101.65,55.56 101.65,56.95 101.65,58.34 101.65,59.73 101.65,61.12 101.65,62.51 101.65,63.88 101.65,65.20 101.82,66.46 102.41,67.53 103.41,68.16 104.54,68.32 105.63,68.35 106.68,68.35 107.69,68.35 108.65,68.35 109.57,68.35 110.44,68.35 111.26,68.35 112.05,68.35 112.78,68.35 113.47,68.35 114.12,68.35 114.76,68.35 115.42,68.35 116.11,68.35 116.83,68.35 117.57,68.35 118.33,68.35 119.13,68.35 119.95,68.35 120.79,68.35 121.66,68.35 122.56,68.35 123.48,68.35"/>
        <egoVelocity values="0.00,13.89 0.00,13.89 0.00,13.89 0.00,13.89 0.00,13.89 0.00,13.89 0.00,13.89 0.00,13.89 0.00,13.89 0.00,13.89 0.00,13.89 0.00,13.89 0.00,13.89 0.00,13.89 0.00,13.89 0.00,13.89 0.00,13.89 0.00,13.89 0.00,13.89 0.00,13.89 0.00,13.89 0.00,13.89 0.00,13.89 0.00,13.89 0.00,13.89 0.00,13.89 0.00,13.89 0.00,13.89 0.00,13.89 0.00,13.89 0.00,13.89 0.00,13.89 0.00,13.89 0.00,13.89 0.00,13.89 0.00,13.89 0.00,13.89 0.00,13.89 0.00,13.89 0.00,13.89 0.00,13.89 0.00,13.89 0.00,13.89 0.00,13.89 0.00,13.89 0.00,13.89 0.00,13.89 0.00,13.89 0.00,13.89 0.00,13.89 0.00,13.89 0.00,13.89 0.00,13.89 0.00,13.89 0.00,13.89 0.00,13.89 0.00,13.89 0.00,13.89 0.00,13.89 0.00,13.89 0.00,13.89 0.00,13.89 0.00,13.89 0.00,13.89 0.00,13.89 0.00,13.89 0.00,13.89 0.00,13.89 0.00,13.89 0.00,13.89 0.00,13.89 0.00,13.89 0.00,13.89 0.00,13.89 0.00,13.89 0.00,13.89 0.00,13.89 0.00,13.89 0.00,13.89 0.00,13.89 0.00,13.89 0.00,13.89 0.00,13.44 0.00,12.99 0.21,12.54 0.93,12.06 2.17,11.44 3.68,10.57 5.19,9.41 6.51,7.97 7.48,6.39 8.05,4.83 8.26,3.43 8.18,2.28 7.92,1.37 7.55,0.74 7.13,0.36 6.69,0.12 6.24,0.05 6.50,0.00 6.76,0.00 7.02,0.00 7.28,0.00 7.54,0.00 7.80,0.00 8.06,0.00 8.32,0.00 8.58,0.00 8.84,0.00 9.10,0.00 9.36,0.00"/>
        <foePosition values="13.89,48.35 15.28,48.35 16.67,48.35 18.06,48.35 19.45,48.35 20.83,48.35 22.22,48.35 23.61,48.35 25.00,48.35 26.39,48.35 27.78,48.35 29.17,48.35 30.56,48.35 31.95,48.35 33.34,48.35 34.72,48.35 36.11,48.35 37.50,48.35 38.89,48.35 40.28,48.35 41.67,48.35 43.06,48.35 44.45,48.35 45.84,48.35 47.23,48.35 48.62,48.35 50.00,48.35 51.39,48.35 52.78,48.35 54.17,48.35 55.56,48.35 56.95,48.35 58.34,48.35 59.73,48.35 61.12,48.35 62.51,48.35 63.89,48.35 65.28,48.35 66.67,48.35 68.06,48.35 69.45,48.35 70.84,48.35 72.23,48.35 73.62,48.35 74.99,48.35 76.31,48.35 77.59,48.35 78.82,48.35 80.01,48.35 81.16,48.35 82.26,48.35 83.31,48.35 84.32,48.35 85.29,48.35 86.21,48.35 87.08,48.35 87.91,48.35 88.70,48.35 89.43,48.35 90.13,48.35 90.78,48.35 91.38,48.35 91.94,48.35 92.46,48.35 92.93,48.35 93.35,48.35 93.73,48.35 94.07,48.35 94.38,48.35 94.69,48.35 95.00,48.35 95.31,48.35 95.63,48.33 95.94,48.32 96.25,48.30 96.54,48.29 96.80,48.27 97.01,48.26 97.18,48.26 97.30,48.25 97.41,48.24 97.54,48.24 97.71,48.23 97.90,48.22 98.11,48.21 98.35,48.19 98.61,48.13 98.90,48.06 99.21,47.99 99.54,47.91 99.90,47.83 100.29,47.73 100.69,47.60 101.10,47.42 101.53,47.22 101.98,47.01 102.46,46.79 102.95,46.53 103.46,46.25 103.99,45.96 104.54,45.65 105.12,45.34 105.72,45.01 106.34,44.67 106.99,44.32 107.65,43.96 108.35,43.58 109.06,43.19 109.80,42.79 110.56,42.38 111.34,41.95"/>
        <foeVelocity values="13.89,0.00 13.89,0.00 13.89,0.00 13.89,0.00 13.89,0.00 13.89,0.00 13.89,0.00 13.89,0.00 13.89,0.00 13.89,0.00 13.89,0.00 13.89,0.00 13.89,0.00 13.89,0.00 13.89,0.00 13.89,0.00 13.89,0.00 13.89,0.00 13.89,0.00 13.89,0.00 13.89,0.00 13.89,0.00 13.89,0.00 13.89,0.00 13.89,0.00 13.89,0.00 13.89,0.00 13.89,0.00 13.89,0.00 13.89,0.00 13.89,0.00 13.89,0.00 13.89,0.00 13.89,0.00 13.89,0.00 13.89,0.00 13.89,0.00 13.89,0.00 13.89,0.00 13.89,0.00 13.89,0.00 13.89,0.00 13.89,0.00 13.89,0.00 13.47,0.00 13.02,0.00 12.57,0.00 12.12,0.00 11.67,0.00 11.22,0.00 10.77,0.00 10.32,0.00 9.87,0.00 9.42,0.00 8.97,0.00 8.52,0.00 8.07,0.00 7.62,0.00 7.17,0.00 6.72,0.00 6.27,0.00 5.82,0.00 5.37,0.00 4.92,0.00 4.47,0.00 4.02,0.00 3.57,0.00 3.12,0.00 3.12,0.00 3.12,0.00 3.12,0.00 3.12,-0.00 3.12,-0.01 3.12,-0.01 3.12,-0.02 2.78,-0.02 2.33,-0.02 1.88,-0.02 1.43,-0.01 0.98,-0.01 1.24,-0.01 1.50,-0.02 1.76,-0.02 2.02,-0.03 2.28,-0.03 2.54,-0.04 2.80,-0.06 3.06,-0.09 3.32,-0.12 3.58,-0.16 3.83,-0.20 4.09,-0.25 4.35,-0.33 4.60,-0.44 4.85,-0.56 5.09,-0.70 5.33,-0.86 5.56,-1.05 5.78,-1.26 5.99,-1.50 6.19,-1.77 6.38,-2.04 6.56,-2.32 6.73,-2.62 6.88,-2.94 7.03,-3.25 7.19,-3.51 7.35,-3.78 7.53,-3.99 7.73,-4.16 7.94,-4.33"/>
        <conflictPoint values="101.65,45.94 101.65,45.94 101.65,45.94 101.65,45.94 101.65,45.94 101.65,45.94 101.65,45.94 101.65,45.94 101.65,45.94 101.65,45.94 101.65,45.94 101.65,45.94 101.65,45.94 101.65,45.94 101.65,45.94 101.65,45.94 101.65,45.94 101.65,45.94 101.65,45.94 101.65,45.94 101.65,45.94 101.65,45.94 101.65,45.94 101.65,45.94 101.65,45.94 101.65,45.94 101.65,45.94 101.65,45.94 101.65,45.94 101.65,45.94 101.65,45.94 101.65,45.94 101.65,45.94 101.65,45.94 101.65,45.94 101.65,45.94 101.65,45.94 101.65,45.94 101.65,45.94 101.65,45.94 101.65,45.94 101.65,45.94 101.65,45.94 101.65,45.94 100.54,47.67 100.54,47.67 100.54,47.67 100.54,47.67 100.54,47.67 100.54,47.67 100.54,47.67 100.54,47.67 100.54,47.67 100.54,47.67 100.54,47.67 100.54,47.67 100.54,47.67 100.54,47.67 100.54,47.67 100.54,47.67 100.54,47.67 100.54,47.67 100.54,47.67 100.54,47.67 100.54,47.67 100.54,47.67 100.54,47.67 100.54,47.67 100.54,47.67 100.54,47.67 100.54,47.67 100.54,47.67 100.54,47.67 100.54,47.67 100.54,47.67 100.54,47.67 100.54,47.67 100.54,47.67 100.54,47.67 100.54,47.67 100.54,47.67 100.54,47.67 100.54,47.67 100.54,47.67 100.54,47.67 100.54,47.67 100.54,47.67 100.54,47.67 100.54,47.67 100.54,47.67 100.54,47.67 100.54,47.67 100.54,47.67 100.54,47.67 100.54,47.67 100.54,47.67 100.54,47.67 100.54,47.67 100.54,47.67 100.54,47.67 100.54,47.67 100.54,47.67 100.54,47.67 100.54,47.67 100.54,47.67 100.54,47.67 100.54,47.67 100.54,47.67 100.54,47.67 100.54,47.67 100.54,47.67"/>
        <TTCSpan values="6.91 6.81 6.71 6.61 6.51 6.41 6.31 6.21 6.11 6.01 5.91 5.81 5.71 5.61 5.51 5.41 5.31 5.21 5.11 5.01 4.91 4.81 4.71 4.61 4.51 4.41 4.31 4.21 4.11 4.01 3.91 3.81 3.71 3.61 3.51 3.41 3.31 3.21 3.11 3.01 2.91 2.81 2.71 2.61 NA NA NA NA NA NA NA NA NA NA NA NA NA NA NA NA NA NA NA NA NA NA NA NA NA NA NA NA NA NA NA NA NA NA NA NA NA NA NA NA NA NA NA NA NA NA NA NA NA NA NA NA NA NA NA NA NA NA NA NA NA NA NA NA NA NA NA"/>
        <minTTC time="5.30" position="101.65,45.94" type="11" value="2.61"/>
        <DRACSpan values="0.10 0.11 0.11 0.11 0.12 0.12 0.12 0.13 0.13 0.13 0.14 0.14 0.15 0.15 0.16 0.16 0.17 0.18 0.18 0.19 0.20 0.21 0.22 0.22 0.23 0.24 0.26 0.27 0.28 0.29 0.31 0.32 0.34 0.36 0.38 0.40 0.42 0.45 0.48 0.51 0.54 0.58 0.62 0.66 3.48 3.41 3.35 3.27 3.18 3.09 2.99 2.87 2.74 2.59 2.43 2.24 2.03 1.78 1.49 1.16 0.77 0.31 NA NA NA NA NA NA NA NA NA NA NA NA NA NA NA NA NA NA NA NA NA NA NA NA NA NA NA NA NA NA NA NA NA NA NA NA NA NA NA NA NA NA NA NA NA NA NA NA NA"/>
        <maxDRAC time="5.40" position="100.54,47.67" type="10" value="3.48"/>
        <PET time="10.16" position="100.54,47.67" type="17" value="1.41"/>
    </conflict>
    <globalMeasures ego="ego1">
        <timeSpan values="1.00 1.10 1.20 1.30 1.40 1.50 1.60 1.70 1.80 1.90 2.00 2.10 2.20 2.30 2.40 2.50 2.60 2.70 2.80 2.90 3.00 3.10 3.20 3.30 3.40 3.50 3.60 3.70 3.80 3.90 4.00 4.10 4.20 4.30 4.40 4.50 4.60 4.70 4.80 4.90 5.00 5.10 5.20 5.30 5.40 5.50 5.60 5.70 5.80 5.90 6.00 6.10 6.20 6.30 6.40 6.50 6.60 6.70 6.80 6.90 7.00 7.10 7.20 7.30 7.40 7.50 7.60 7.70 7.80 7.90 8.00 8.10 8.20 8.30 8.40 8.50 8.60 8.70 8.80 8.90 9.00 9.10 9.20 9.30 9.40 9.50 9.60 9.70 9.80 9.90 10.00 10.10 10.20 10.30 10.40 10.50 10.60 10.70 10.80 10.90 11.00 11.10 11.20 11.30 11.40 11.50 11.60 11.70 11.80 11.90 12.00 12.10 12.20 12.30 12.40 12.50 12.60 12.70 12.80 12.90 13.00 13.10 13.20 13.30 13.40 13.50 13.60 13.70 13.80 13.90 14.00 14.10 14.20 14.30 14.40 14.50 14.60 14.70 14.80 14.90 15.00 15.10 15.20 15.30 15.40 15.50 15.60 15.70 15.80 15.90 16.00 16.10 16.20 16.30 16.40 16.50 16.60 16.70 16.80 16.90 17.00 17.10 17.20 17.30 17.40"/>
        <BRSpan values="0.00 0.00 0.00 0.00 0.00 0.00 0.00 0.00 0.00 0.00 0.00 0.00 0.00 0.00 0.00 0.00 0.00 0.00 0.00 0.00 0.00 0.00 0.00 0.00 0.00 0.00 0.00 0.00 0.00 0.00 0.00 0.00 0.00 0.00 0.00 0.00 0.00 0.00 0.00 0.00 0.00 0.00 0.00 0.00 0.00 0.00 0.00 0.00 0.00 0.00 0.00 0.00 0.00 0.00 0.00 0.00 0.00 0.00 0.00 0.00 0.00 0.00 0.00 0.00 0.00 0.00 0.00 0.00 0.00 0.00 0.00 0.00 0.00 0.00 0.00 0.00 0.00 0.00 0.00 0.00 0.00 0.00 4.49 4.50 4.50 4.50 4.50 4.50 4.50 4.50 4.50 4.50 4.50 4.50 4.50 4.50 4.50 4.50 4.50 0.00 0.00 0.00 0.00 0.00 0.00 0.00 0.00 0.00 0.00 0.00 0.00 0.00 0.00 0.00 0.00 0.00 0.00 0.00 0.00 0.00 0.00 0.00 0.00 0.00 0.00 0.00 0.00 0.00 0.00 0.00 0.00 0.00 0.00 0.00 0.00 0.00 0.00 0.00 0.00 0.00 0.00 0.00 0.00 0.00 0.00 0.00 0.00 0.00 0.00 0.00 0.00 0.00 0.00 0.00 0.00 0.00 0.00 0.00 0.00 0.00 0.00 0.00 0.00 0.00 0.00"/>
        <maxBR time="9.40" position="101.82,66.46" value="4.50"/>
        <SGAPSpan values="NA NA NA NA NA NA NA NA NA NA NA NA NA NA NA NA NA NA NA NA NA NA NA NA NA NA NA NA NA NA NA NA NA NA NA NA NA NA NA NA NA NA NA NA NA NA NA NA NA NA NA NA NA NA NA NA NA NA NA NA NA NA NA NA NA NA NA NA NA NA NA NA NA NA NA NA NA NA NA NA NA NA NA NA NA NA NA NA NA NA NA NA NA NA NA NA NA NA NA NA NA NA NA NA NA NA NA NA NA NA NA NA NA NA NA NA NA NA NA NA NA NA NA NA NA NA NA NA NA NA NA NA NA NA NA NA NA NA NA NA NA NA NA NA NA NA NA NA NA NA NA NA NA NA NA NA NA NA NA NA NA NA NA NA NA"/>
        <TGAPSpan values="NA NA NA NA NA NA NA NA NA NA NA NA NA NA NA NA NA NA NA NA NA NA NA NA NA NA NA NA NA NA NA NA NA NA NA NA NA NA NA NA NA NA NA NA NA NA NA NA NA NA NA NA NA NA NA NA NA NA NA NA NA NA NA NA NA NA NA NA NA NA NA NA NA NA NA NA NA NA NA NA NA NA NA NA NA NA NA NA NA NA NA NA NA NA NA NA NA NA NA NA NA NA NA NA NA NA NA NA NA NA NA NA NA NA NA NA NA NA NA NA NA NA NA NA NA NA NA NA NA NA NA NA NA NA NA NA NA NA NA NA NA NA NA NA NA NA NA NA NA NA NA NA NA NA NA NA NA NA NA NA NA NA NA NA NA"/>
    </globalMeasures>
</SSMLog>
